Version 4
SHEET 1 1532 680
WIRE -560 64 -560 -112
WIRE 112 128 -144 128
WIRE 208 128 208 -48
WIRE 480 128 480 -64
WIRE 576 128 480 128
WIRE -384 160 -384 -16
WIRE 480 160 480 128
WIRE 432 176 304 176
WIRE 576 208 576 128
WIRE 576 208 480 208
WIRE 112 224 0 224
WIRE -560 240 -560 144
WIRE 608 256 480 256
WIRE 720 256 608 256
WIRE 800 256 720 256
WIRE 480 288 480 256
WIRE 208 320 208 224
WIRE 608 368 608 256
WIRE 720 368 720 256
WIRE -384 416 -384 240
WIRE -560 464 -560 320
WIRE -144 464 -144 128
WIRE 480 464 480 368
WIRE 480 464 -144 464
WIRE 480 496 480 464
WIRE 720 592 720 448
WIRE 608 608 608 432
WIRE 480 640 480 576
FLAG 480 640 0
FLAG 608 608 0
FLAG 720 592 0
FLAG 800 256 vout
FLAG 480 -64 vdd
FLAG 208 320 0
FLAG 208 -48 vdd
FLAG -560 464 0
FLAG -384 416 0
FLAG -384 -16 vref
FLAG -560 -112 vdd
FLAG 0 224 vref
SYMBOL pmos4 432 256 M180
WINDOW 123 56 44 Left 2
SYMATTR InstName M1
SYMATTR Value2 l=0.36u w={w} m=500
SYMBOL res 464 272 R0
SYMATTR InstName R1
SYMATTR Value 20k
SYMBOL res 464 480 R0
SYMATTR InstName R2
SYMATTR Value 100k
SYMBOL cap 592 368 R0
SYMATTR InstName C1
SYMATTR Value 10p
SYMBOL current 720 368 R0
WINDOW 123 0 0 Left 0
WINDOW 39 0 0 Left 0
SYMATTR InstName I1
SYMATTR Value 20m
SYMBOL voltage -560 224 R0
WINDOW 123 0 0 Left 0
WINDOW 39 0 0 Left 0
SYMATTR InstName V1
SYMATTR Value 1.8
SYMBOL voltage -384 144 R0
WINDOW 123 0 0 Left 0
WINDOW 39 0 0 Left 0
SYMATTR InstName V2
SYMATTR Value 1
SYMBOL error_amplifier 192 144 R0
SYMATTR InstName X1
SYMBOL voltage -560 48 R0
WINDOW 123 0 0 Left 0
WINDOW 39 0 0 Left 0
SYMATTR InstName V3
SYMATTR Value SINE(0 50m 1k)
TEXT 928 -16 Left 2 !.op
TEXT 840 -64 Left 2 !.include "C:\\Users\\PC\\Downloads\\tsmc180.txt"
TEXT 920 8 Left 2 !.param w=12.676041µ
TEXT 928 72 Left 2 !;dc I1 100u 100m 50u
TEXT 944 120 Left 2 !.tran 3m
TEXT 920 160 Left 2 !.options plotwinsize=0
